
ROCKS----1----*----2----*----3----*----4----*----5----*----6----*----7----*----8
START----1----*----2----*----3----*----4----*----5----*----6----*----7----*----8
----*----1-MOP: 123456789*123456789*1234----*----5----*----6----*----7----*----8
PARAM----1----*----2----*----3----*----4----*----5----*----6----*----7----*----8
 1 2   3   4   5123847516293457298                                              
                                                                                
          
                                                            
                                                                                
ENDCY----1----*----2----*----3----*----4----*----5----*----6----*----7----*----8