testing2
ROCKS----1----*----2----*----3----*----4----*----5----*----6----*----7----*----8
rock1    *                                                                      
                                                                      
    1              2         3         4         5         6         7         8
    9             10        11                                                  
rock2   **                                                                      
                                                                      
    1              2         3         4         5         6         7         8
    9             10        11                                                  
START----1----*----2----*----3----*----4----*----5----*----6----*----7----*----8
----*----1-MOP: 123456789*123456789*1234----*----5----*----6----*----7----*----8
RPCAP----1----*----2----*----3----*----4----*----5----*----6----*----7----*----8
    1              2         3         4         5         6         7         8
    9             10        11                                                  
ENDCY----1----*----2----*----3----*----4----*----5----*----6----*----7----*----8