testingrocksrpcap
ROCKS----1----*----2----*----3----*----4----*----5----*----6----*----7----*----8
rock1    1         2         3         4                                        
                                                                      
START----1----*----2----*----3----*----4----*----5----*----6----*----7----*----8
----*----1-MOP: 123456789*123456789*1234----*----5----*----6----*----7----*----8
RPCAP----1----*----2----*----3----*----4----*----5----*----6----*----7----*----8
    3     .30       .05                                                         
    1             0.        0.        1.                                        
ENDCY----1----*----2----*----3----*----4----*----5----*----6----*----7----*----8