testing 1.3
ROCKS----1----*----2----*----3----*----4----*----5----*----6----*----7----*----8
RESER    1         2         3         4                                        
                                                                      
                   2                                                            
                                                                                
PARAM----1----*----2----*----3----*----4----*----5----*----6----*----7----*----8
 1 2   3   4   5      134557245245724352                  12       123          
        23        14       434                                                  
          
                                                            
                                                                                
SOLVR----1----*----2----*----3----*----4----*----5----*----6----*----7----*----8
1   2    3         4         5
RPCAP----1----*----2----*----3----*----4----*----5----*----6----*----7----*----8
                   1         2         3         4                              
                                                                                
INDOM----1----*----2----*----3----*----4----*----5----*----6----*----7----*----8
    1
                   2
DIFFU----1----*----2----*----3----*----4----*----5----*----6----*----7----*----8
         1         2
TIMES----1----*----2----*----3----*----4----*----5----*----6----*----7----*----8
    1    2         3         4
         5
SELEC----1----*----2----*----3----*----4----*----5----*----6----*----7----*----8
    1
         2

FOFT-----1----*----2----*----3----*----4----*----5----*----6----*----7----*----8
    1
COFT-----1----*----2----*----3----*----4----*----5----*----6----*----7----*----8
         1
GOFT-----1----*----2----*----3----*----4----*----5----*----6----*----7----*----8
    1
ENDCY----1----*----2----*----3----*----4----*----5----*----6----*----7----*----8