Testing 1.4
ROCKS----1----*----2----*----3----*----4----*----5----*----6----*----7----*----8
RESER 1e17         2         3         4         5         6         7         8
         2        47                                                  
                  34                                                            
                                                                                
MULTI----1----*----2----*----3----*----4----*----5----*----6----*----7----*----8
    1    2    3   43    5
PARAM----1----*----2----*----3----*----4----*----5----*----6----*----7----*----8
 123   3  23  12           1242353234235                  12        43          
        52       234                                                            
         1         2         3         5         3
                                                            
                                                                                
SOLVR----1----*----2----*----3----*----4----*----5----*----6----*----7----*----8
1   2    3         4         5
RPCAP----1----*----2----*----3----*----4----*----5----*----6----*----7----*----8
                  12        34        46        23       543        12       432
   54                                                                           
TIMES----1----*----2----*----3----*----4----*----5----*----6----*----7----*----8
    1    2         3         4
         5
GOFT-----1----*----2----*----3----*----4----*----5----*----6----*----7----*----8
   12
ENDCY----1----*----2----*----3----*----4----*----5----*----6----*----7----*----8