testinggener2
ROCKS----1----*----2----*----3----*----4----*----5----*----6----*----7----*----8
START----1----*----2----*----3----*----4----*----5----*----6----*----7----*----8
----*----1-MOP: 123456789*123456789*1234----*----5----*----6----*----7----*----8
GENER----1----*----2----*----3----*----4----*----5----*----6----*----7----*----8
A1S 3INJ 2                   3     COM2a      3.75     5.0E5          
           0.0    25920000.0  3155760000.0
          3.75      3.75e-10      3.75e-10
      500000.0      500000.0      500000.0
ENDCY----1----*----2----*----3----*----4----*----5----*----6----*----7----*----8