Sample Problem h02.inp: 2-waters, pulse tracer, heterogeneous
ROCKS----1----*----2----*----3----*----4----*----5----*----6----*----7----*----8
RESER          2678.       .01    6.E-13    6.E-13    6.E-13       2.1     1000.
                                                                      
INJ01          2650.       .01    6.E-13    6.E-13    6.E-13       2.1     1.e20
                                                                      
MAT03          2650.       .01    6.E-13    6.E-13    6.E-13       2.1     1000.
                                                                      
MAT04          2650.       .01    6.E-15    6.E-15    6.E-15       2.1     1000.
                                                                      
MAT05          2650.       .01    6.E-13    6.E-13    6.E-13       2.1     1000.
                                                                      
MULTI----1----*----2----*----3----*----4----*----5----*----6----*----7----*----8
    2    3    2    6     
START----1----*----2----*----3----*----4----*----5----*----6----*----7----*----8
----*----1-MOP: 123456789*123456789*1234----*----5----*----6----*----7----*----8
PARAM----1----*----2----*----3----*----4----*----5----*----6----*----7----*----8
   1  99      9910003010000200 4 0                                              
          7.889400E8      1.e5          A1S 3                                   
     1.E-5                                             1.E-8
              100.e5               150.0              1.e-10
                                                                                
SOLVR----1----*----2----*----3----*----4----*----5----*----6----*----7----*----8
5  Z3   O0       0.8     1.e-7
RPCAP----1----*----2----*----3----*----4----*----5----*----6----*----7----*----8
    3     .30       .05                                                         
    1             0.        0.        1.                                        
GENER----1----*----2----*----3----*----4----*----5----*----6----*----7----*----8
A1S 3INJ 2                   3     COM2a      3.75     5.0E5          
           0.0    25920000.0  3155760000.0
          3.75      3.75e-10      3.75e-10
      500000.0      500000.0      500000.0
TIMES----1----*----2----*----3----*----4----*----5----*----6----*----7----*----8
    5    5                    
 25920000.3.155760e7 1.57788E8 3.15576e8 7.88940E8
FOFT-----1----*----2----*----3----*----4----*----5----*----6----*----7----*----8
A1S 3
A13 3
A1328
A1S28
GOFT-----1----*----2----*----3----*----4----*----5----*----6----*----7----*----8
A13 3
A1328
A1S28
ENDCY----1----*----2----*----3----*----4----*----5----*----6----*----7----*----8