testingtimes
ROCKS----1----*----2----*----3----*----4----*----5----*----6----*----7----*----8
START----1----*----2----*----3----*----4----*----5----*----6----*----7----*----8
----*----1-MOP: 123456789*123456789*1234----*----5----*----6----*----7----*----8
TIMES----1----*----2----*----3----*----4----*----5----*----6----*----7----*----8
    5    5                    
 25920000.3.155760e7 1.57788E8 3.15576e8 7.88940E8
ENDCY----1----*----2----*----3----*----4----*----5----*----6----*----7----*----8