version3test
ROCKS----1----*----2----*----3----*----4----*----5----*----6----*----7----*----8
rock1    1         2         3         4                                        
                                                                      
 this             is     rpcap      test       ing                              
                                                                                
rock2    1         2         3         4         5         6         7          
                                                                      
                                                                                
                                                                                
START----1----*----2----*----3----*----4----*----5----*----6----*----7----*----8
----*----1-MOP: 123456789*123456789*1234----*----5----*----6----*----7----*----8
MULTI----1----*----2----*----3----*----4----*----5----*----6----*----7----*----8
    2    3    0    6     
PARAM----1----*----2----*----3----*----4----*----5----*----6----*----7----*----8
 124   4  35   terge                                     rge                    
                                                                                
          
                                                            
                                                                                
SOLVR----1----*----2----*----3----*----4----*----5----*----6----*----7----*----8
1   2   34         5         6
RPCAP----1----*----2----*----3----*----4----*----5----*----6----*----7----*----8
 this             is     rpcap      test       ing                              
                                                                                
GENER----1----*----2----*----3----*----4----*----5----*----6----*----7----*----8
  123  445      5dte    g   dv        d                               
          
          
          
INDOM----1----*----2----*----3----*----4----*----5----*----6----*----7----*----8
    1
                   2
DIFFU----1----*----2----*----3----*----4----*----5----*----6----*----7----*----8
         1         2
TIMES----1----*----2----*----3----*----4----*----5----*----6----*----7----*----8
    1    2         3         4
         5
SELEC----1----*----2----*----3----*----4----*----5----*----6----*----7----*----8
    1
         2

FOFT-----1----*----2----*----3----*----4----*----5----*----6----*----7----*----8    1
    2
    3
    4
COFT-----1----*----2----*----3----*----4----*----5----*----6----*----7----*----8    1
    2
    3
GOFT-----1----*----2----*----3----*----4----*----5----*----6----*----7----*----8    1
    2
    3
    4    5    6
ENDCY----1----*----2----*----3----*----4----*----5----*----6----*----7----*----8